Version 4
SHEET 1 1424 680
WIRE 48 -272 -544 -272
WIRE 256 -272 48 -272
WIRE 416 -272 256 -272
WIRE 592 -272 416 -272
WIRE 640 -272 592 -272
WIRE 640 -256 640 -272
WIRE 592 -240 592 -272
WIRE 592 -224 592 -240
WIRE 256 -176 256 -272
WIRE 416 -176 416 -272
WIRE 592 -112 592 -144
WIRE 592 -112 480 -112
WIRE 480 -96 480 -112
WIRE 592 -96 592 -112
WIRE 256 -80 256 -96
WIRE 352 -80 256 -80
WIRE 352 -64 352 -80
WIRE 48 -48 48 -272
WIRE -544 -32 -544 -272
WIRE 256 -32 256 -80
WIRE 352 0 144 0
WIRE 480 0 480 -32
WIRE 592 0 592 -16
WIRE 592 0 480 0
WIRE 608 0 592 0
WIRE 800 0 752 0
WIRE 864 0 800 0
WIRE 912 0 864 0
WIRE 192 16 160 16
WIRE 416 16 416 -112
WIRE 464 16 416 16
WIRE 592 16 592 0
WIRE 912 32 912 0
WIRE 864 64 864 0
WIRE 144 80 144 0
WIRE 160 80 160 16
WIRE 160 80 144 80
WIRE -544 96 -544 48
WIRE 48 96 48 32
WIRE 160 96 160 80
WIRE 160 96 48 96
WIRE 256 96 256 64
WIRE 320 96 256 96
WIRE 368 96 320 96
WIRE 464 96 464 16
WIRE 464 96 448 96
WIRE 528 96 496 96
WIRE 544 96 528 96
WIRE 48 112 48 96
WIRE 256 128 256 96
WIRE 464 128 464 96
WIRE 464 128 448 128
WIRE 592 128 592 112
WIRE 688 128 592 128
WIRE 864 128 768 128
WIRE 448 144 448 128
WIRE 528 144 528 96
WIRE 160 176 160 96
WIRE 192 176 160 176
WIRE 592 176 592 128
WIRE 912 192 912 112
WIRE 320 208 320 96
WIRE 416 208 320 208
WIRE 800 208 800 0
WIRE 48 224 48 192
WIRE 416 224 416 208
WIRE 256 256 256 224
WIRE 640 256 640 -192
WIRE -288 272 -352 272
WIRE -192 272 -208 272
WIRE -160 272 -192 272
WIRE -32 272 -32 256
WIRE -32 272 -80 272
WIRE -16 272 -32 272
WIRE -192 320 -192 272
WIRE -352 336 -352 272
WIRE -32 352 -32 272
WIRE 416 352 416 304
WIRE -544 464 -544 176
WIRE -352 464 -352 416
WIRE -352 464 -544 464
WIRE -192 464 -192 384
WIRE -192 464 -352 464
WIRE -32 464 -32 416
WIRE -32 464 -192 464
WIRE 48 464 48 320
WIRE 48 464 -32 464
WIRE 256 464 256 336
WIRE 256 464 48 464
WIRE 416 464 416 416
WIRE 416 464 256 464
WIRE 592 464 592 256
WIRE 592 464 416 464
WIRE 640 464 640 320
WIRE 640 464 592 464
WIRE 800 464 800 272
WIRE 800 464 640 464
WIRE 912 464 912 272
WIRE 912 464 800 464
WIRE 592 512 592 464
FLAG 592 512 0
FLAG 496 96 Vg
FLAG 592 -240 VL+
FLAG 592 -112 VL-
FLAG 912 0 Vout
FLAG -352 272 Vtrig
FLAG 592 0 Vd
SYMBOL npn 192 -32 R0
SYMATTR InstName Q1
SYMATTR Value BC337-40
SYMBOL npn -16 224 R0
SYMATTR InstName Q2
SYMATTR Value BC337-40
SYMBOL pnp 192 224 M180
SYMATTR InstName Q3
SYMATTR Value BC327-40
SYMBOL nmos 544 16 R0
SYMATTR InstName M1
SYMATTR Value IRF530
SYMBOL diode 688 16 R270
WINDOW 0 32 32 VTop 2
WINDOW 3 0 32 VBottom 2
SYMATTR InstName D1
SYMATTR Value MUR460
SYMBOL res 464 80 R90
WINDOW 0 0 56 VBottom 2
WINDOW 3 32 56 VTop 2
SYMATTR InstName R6
SYMATTR Value 100
SYMBOL res -64 256 R90
WINDOW 0 0 56 VBottom 2
WINDOW 3 32 56 VTop 2
SYMATTR InstName R1
SYMATTR Value 470
SYMBOL res 608 0 R180
WINDOW 0 36 76 Left 2
WINDOW 3 36 40 Left 2
SYMATTR InstName R4
SYMATTR Value 5
SYMBOL res 64 48 R180
WINDOW 0 36 76 Left 2
WINDOW 3 36 40 Left 2
SYMATTR InstName R3
SYMATTR Value 1k
SYMBOL res -304 288 R270
WINDOW 0 32 56 VTop 2
WINDOW 3 0 56 VBottom 2
SYMATTR InstName R5
SYMATTR Value 470
SYMBOL ind 608 -240 M0
SYMATTR InstName L1
SYMATTR Value 40µ
SYMBOL voltage -544 80 M0
WINDOW 123 0 0 Left 0
WINDOW 39 0 0 Left 0
SYMATTR InstName V2
SYMATTR Value 12
SYMBOL polcap 784 208 R0
WINDOW 3 24 56 Left 2
SYMATTR InstName C1
SYMATTR Value 100µ
SYMATTR Description Capacitor
SYMATTR Type cap
SYMATTR SpiceLine V=2 Irms=3 Rser=0.006 Lser=0 mfg="Rubycon" pn="2SLE100M" type="Al electrolytic"
SYMBOL res 896 176 R0
SYMATTR InstName R2
SYMATTR Value 147
SYMBOL voltage -352 320 R0
WINDOW 3 1319 -420 Left 2
WINDOW 123 0 0 Left 0
WINDOW 39 0 0 Left 0
SYMATTR Value PULSE(5 0 1u 1n 1n {DT*T} {T})
SYMATTR InstName V3
SYMBOL cap 400 352 R0
SYMATTR InstName C2
SYMATTR Value {C_PAR}
SYMBOL cap -208 320 R0
SYMATTR InstName C3
SYMATTR Value {C_PAR}
SYMBOL cap -48 352 R0
SYMATTR InstName C4
SYMATTR Value {C_PAR}
SYMBOL cap 336 -64 R0
SYMATTR InstName C5
SYMATTR Value {C_PAR}
SYMBOL cap 624 256 R0
SYMATTR InstName C6
SYMATTR Value {C_PAR}
SYMBOL cap 848 64 R0
SYMATTR InstName C7
SYMATTR Value {C_PAR}
SYMBOL cap 624 -256 R0
SYMATTR InstName C8
SYMATTR Value {C_PAR}
SYMBOL cap 464 -96 R0
SYMATTR InstName C9
SYMATTR Value {C_PAR}
SYMBOL cap 400 -176 R0
SYMATTR InstName C10
SYMATTR Value {C_PAR}
SYMBOL ind 784 112 R90
WINDOW 0 5 56 VBottom 2
WINDOW 3 32 56 VTop 2
SYMATTR InstName L3
SYMATTR Value {L_PAR}
SYMBOL ind 928 128 R180
WINDOW 0 36 80 Left 2
WINDOW 3 36 40 Left 2
SYMATTR InstName L4
SYMATTR Value {L_PAR}
SYMBOL ind 432 320 R180
WINDOW 0 36 80 Left 2
WINDOW 3 36 40 Left 2
SYMATTR InstName L5
SYMATTR Value {L_PAR}
SYMBOL ind 592 16 R270
WINDOW 0 32 56 VTop 2
WINDOW 3 5 56 VBottom 2
SYMATTR InstName L6
SYMATTR Value {L_PAR}
SYMBOL ind 240 240 R0
SYMATTR InstName L7
SYMATTR Value {L_PAR}
SYMBOL ind 32 96 R0
SYMATTR InstName L8
SYMATTR Value {L_PAR}
SYMBOL ind 240 -192 R0
SYMATTR InstName L9
SYMATTR Value {L_PAR}
SYMBOL ind -560 -48 R0
SYMATTR InstName L10
SYMATTR Value {L_PAR}
SYMBOL ind 576 160 R0
SYMATTR InstName L11
SYMATTR Value {L_PAR}
SYMBOL ind 544 128 R90
WINDOW 0 5 56 VBottom 2
WINDOW 3 32 56 VTop 2
SYMATTR InstName L12
SYMATTR Value {L_PAR}
TEXT 960 -152 Left 2 !.tran 0 4.1m 0 1n
TEXT 752 -240 Left 2 ;Vin = 12V
TEXT 752 -216 Left 2 ;Vo=24V
TEXT 752 -192 Left 2 ;Delta Vo=5%
TEXT 752 -168 Left 2 ;Fsw 60KHz
TEXT 928 -304 Left 2 !.params DT = 0.55275
TEXT 960 -248 Left 2 !.params T=5.8823U
TEXT 960 -184 Left 2 !;.params DT = 0.5438447187
TEXT 1112 104 Left 2 !.param C_PAR=40p
TEXT 1088 208 Left 2 !.param L_PAR= 20n
