Version 4
SHEET 1 2728 2048
WIRE 48 -240 -400 -240
WIRE 464 -240 320 -240
WIRE 608 -240 528 -240
WIRE 720 -240 608 -240
WIRE 608 -176 608 -240
WIRE 720 -176 720 -240
WIRE 320 -160 320 -240
WIRE 48 -96 48 -240
WIRE 48 -80 48 -96
WIRE 320 -16 320 -80
WIRE 608 -16 608 -112
WIRE 608 -16 320 -16
WIRE 720 -16 720 -96
WIRE 720 -16 608 -16
WIRE -400 0 -400 -240
WIRE -128 0 -176 0
WIRE -32 0 -48 0
WIRE 0 0 -32 0
WIRE -784 16 -944 16
WIRE 608 16 608 -16
WIRE 48 64 48 16
WIRE 464 64 320 64
WIRE 608 64 528 64
WIRE 720 64 608 64
WIRE -944 80 -944 16
WIRE 608 128 608 64
WIRE 720 128 720 64
WIRE 320 144 320 64
WIRE 48 192 48 64
WIRE -944 240 -944 160
WIRE 320 288 320 224
WIRE 608 288 608 192
WIRE 608 288 320 288
WIRE 720 288 720 208
WIRE 720 288 608 288
WIRE 608 320 608 288
WIRE -400 368 -400 80
WIRE 48 368 48 272
WIRE 48 368 -400 368
WIRE -400 432 -400 368
FLAG -400 432 0
FLAG 720 -240 Vout1
FLAG -944 240 0
FLAG -784 16 PWM
FLAG -176 0 PWM
FLAG 608 16 0
FLAG 720 64 Vout2
FLAG 608 320 0
FLAG 48 -96 Vs+
FLAG 48 64 Vs-
FLAG 320 -240 Vn2+
FLAG 320 -16 Vn2-
FLAG -32 0 Vg
SYMBOL nmos 0 -80 R0
SYMATTR InstName M1
SYMATTR Value IRF530
SYMBOL diode 464 -224 R270
WINDOW 0 32 32 VTop 2
WINDOW 3 0 32 VBottom 2
SYMATTR InstName D1
SYMATTR Value MUR460
SYMBOL voltage -400 -16 R0
WINDOW 123 0 0 Left 0
WINDOW 39 0 0 Left 0
SYMATTR InstName V1
SYMATTR Value 12
SYMBOL res -32 -16 R90
WINDOW 0 0 56 VBottom 2
WINDOW 3 32 56 VTop 2
SYMATTR InstName R8
SYMATTR Value 100
SYMBOL cap 592 -176 R0
WINDOW 0 32 3 Left 2
SYMATTR InstName C1
SYMATTR Value 48µ
SYMBOL res 704 -192 R0
SYMATTR InstName R1
SYMATTR Value 10
SYMBOL voltage -944 64 M0
WINDOW 3 -270 235 Left 2
WINDOW 123 0 0 Left 0
WINDOW 39 0 0 Left 0
SYMATTR Value PULSE(0 12 0 1n 1n 2.54u 6.66667u)
SYMATTR InstName V3
SYMBOL ind2 32 288 M180
WINDOW 0 36 80 Left 2
WINDOW 3 36 40 Left 2
SYMATTR InstName L1
SYMATTR Value 40µ
SYMATTR Type ind
SYMBOL ind2 336 -176 M0
SYMATTR InstName L2
SYMATTR Value 4.444µ
SYMATTR Type ind
SYMBOL diode 464 80 R270
WINDOW 0 32 32 VTop 2
WINDOW 3 0 32 VBottom 2
SYMATTR InstName D2
SYMATTR Value MUR460
SYMBOL cap 592 128 R0
WINDOW 0 32 3 Left 2
SYMATTR InstName C2
SYMATTR Value 48µ
SYMBOL res 704 112 R0
SYMATTR InstName R2
SYMATTR Value 10
SYMBOL ind2 336 128 M0
SYMATTR InstName L3
SYMATTR Value 4.444µ
SYMATTR Type ind
TEXT -1392 160 Left 2 !.tran 0 25m 15m
TEXT -448 512 Left 2 ;Vo/Vd = (N2/N1) * D/(1-D) = (L2/L1)^(1/2) * D/(1-D)
TEXT 64 -320 Left 2 !K1 L1 L2 L3 1
