Version 4
SHEET 1 2728 2080
WIRE 48 -240 -400 -240
WIRE 656 -208 512 -208
WIRE 800 -208 720 -208
WIRE 912 -208 800 -208
WIRE 800 -144 800 -208
WIRE 912 -144 912 -208
WIRE 512 -128 512 -208
WIRE 48 -80 48 -240
WIRE -400 0 -400 -240
WIRE 512 16 512 -48
WIRE 800 16 800 -80
WIRE 800 16 512 16
WIRE 832 16 800 16
WIRE 912 16 912 -64
WIRE 912 16 832 16
WIRE 656 96 512 96
WIRE 800 96 720 96
WIRE 912 96 800 96
WIRE 800 160 800 96
WIRE 912 160 912 96
WIRE 48 176 48 0
WIRE 512 176 512 96
WIRE -128 256 -176 256
WIRE 0 256 -48 256
WIRE 512 320 512 256
WIRE 800 320 800 224
WIRE 800 320 512 320
WIRE 912 320 912 240
WIRE 912 320 800 320
WIRE -400 368 -400 80
WIRE 48 368 48 272
WIRE 48 368 -400 368
WIRE -400 432 -400 368
WIRE 464 816 336 816
WIRE 624 816 544 816
WIRE 336 848 336 816
WIRE 336 976 336 928
WIRE 336 1104 336 1056
WIRE 192 1216 -704 1216
WIRE -480 1360 -560 1360
WIRE 192 1360 192 1216
WIRE 192 1360 -64 1360
WIRE -832 1424 -912 1424
WIRE -704 1424 -704 1296
WIRE -704 1424 -752 1424
WIRE -480 1424 -704 1424
WIRE 192 1424 -64 1424
WIRE 352 1424 192 1424
WIRE 352 1520 352 1504
WIRE 192 1552 192 1424
WIRE 192 1552 -64 1552
WIRE -544 1616 -752 1616
WIRE -480 1616 -544 1616
WIRE 64 1616 -64 1616
WIRE -480 1680 -672 1680
WIRE 352 1680 -64 1680
WIRE -752 1696 -752 1616
WIRE -672 1696 -672 1680
WIRE -544 1744 -544 1616
WIRE -480 1744 -544 1744
WIRE 256 1744 -64 1744
WIRE -480 1808 -528 1808
WIRE 32 1808 -64 1808
WIRE -752 1856 -752 1760
WIRE -672 1856 -672 1776
WIRE -528 1904 -528 1872
WIRE 32 1904 32 1808
WIRE 32 1904 -48 1904
WIRE 256 1920 256 1744
WIRE -48 1968 -48 1904
WIRE 48 1968 -48 1968
WIRE 208 1968 112 1968
WIRE -48 2032 -48 1968
WIRE 0 2032 -48 2032
WIRE 80 2032 64 2032
WIRE 208 2032 208 1968
WIRE 208 2032 160 2032
FLAG -400 432 0
FLAG 912 -208 Vout1
FLAG 912 96 Vout2
FLAG 64 1616 0
FLAG -912 1424 0
FLAG 336 1104 0
FLAG 624 816 Vout1
FLAG 352 1680 Vcontrol
FLAG 256 1920 0
FLAG -528 1904 0
FLAG -672 1856 0
FLAG -752 1856 0
FLAG 352 1520 0
FLAG -560 1360 V_real
FLAG 336 816 V_real
FLAG 208 1968 V_real
FLAG -176 256 Vcontrol
FLAG 832 16 0
FLAG 800 320 0
SYMBOL nmos 0 176 R0
SYMATTR InstName M1
SYMATTR Value IRF530
SYMBOL diode 656 -192 R270
WINDOW 0 32 32 VTop 2
WINDOW 3 0 32 VBottom 2
SYMATTR InstName D1
SYMATTR Value MUR460
SYMBOL voltage -400 -16 R0
WINDOW 123 0 0 Left 0
WINDOW 39 0 0 Left 0
SYMATTR InstName V1
SYMATTR Value 12
SYMBOL res -32 240 R90
WINDOW 0 0 56 VBottom 2
WINDOW 3 32 56 VTop 2
SYMATTR InstName R8
SYMATTR Value 100
SYMBOL cap 784 -144 R0
WINDOW 0 32 3 Left 2
SYMATTR InstName C1
SYMATTR Value 47µ
SYMBOL res 896 -160 R0
SYMATTR InstName R1
SYMATTR Value 6.75
SYMBOL ind2 32 16 M180
WINDOW 0 36 80 Left 2
WINDOW 3 36 40 Left 2
SYMATTR InstName L1
SYMATTR Value 40µ
SYMATTR Type ind
SYMBOL ind2 528 -144 M0
SYMATTR InstName L2
SYMATTR Value 4.444µ
SYMATTR Type ind
SYMBOL diode 656 112 R270
WINDOW 0 32 32 VTop 2
WINDOW 3 0 32 VBottom 2
SYMATTR InstName D2
SYMATTR Value MUR460
SYMBOL cap 784 160 R0
WINDOW 0 32 3 Left 2
SYMATTR InstName C2
SYMATTR Value 47µ
SYMBOL res 896 144 R0
SYMATTR InstName R2
SYMATTR Value 6.75
SYMBOL ind2 528 160 M0
SYMATTR InstName L3
SYMATTR Value 4.444µ
SYMATTR Type ind
SYMBOL res -720 1200 R0
SYMATTR InstName R3
SYMATTR Value 10k
SYMBOL res -736 1408 R90
WINDOW 0 0 56 VBottom 2
WINDOW 3 32 56 VTop 2
SYMATTR InstName R4
SYMATTR Value 1k
SYMBOL res 560 800 R90
WINDOW 0 0 56 VBottom 2
WINDOW 3 32 56 VTop 2
SYMATTR InstName R6
SYMATTR Value 3k3
SYMBOL cap -544 1808 R0
SYMATTR InstName C3
SYMATTR Value 10µ
SYMBOL res -688 1680 R0
SYMATTR InstName R7
SYMATTR Value 33k
SYMBOL cap -768 1696 R0
SYMATTR InstName C4
SYMATTR Value 0.1n
SYMBOL SG3525A -336 1456 R0
SYMATTR InstName U1
SYMATTR Value SG3525A
SYMBOL cap 64 2016 R90
WINDOW 0 0 32 VBottom 2
WINDOW 3 32 32 VTop 2
SYMATTR InstName C5
SYMATTR Value 10n
SYMBOL res 176 2016 R90
WINDOW 0 0 56 VBottom 2
WINDOW 3 32 56 VTop 2
SYMATTR InstName R9
SYMATTR Value 10k
SYMBOL cap 112 1952 R90
WINDOW 0 0 32 VBottom 2
WINDOW 3 32 32 VTop 2
SYMATTR InstName C6
SYMATTR Value 0.25µ
SYMBOL voltage 352 1408 R0
WINDOW 123 0 0 Left 0
WINDOW 39 0 0 Left 0
SYMATTR InstName V2
SYMATTR Value 12
SYMBOL res 320 960 R0
SYMATTR InstName R10
SYMATTR Value 147
SYMBOL res 320 832 R0
SYMATTR InstName R5
SYMATTR Value {R}
TEXT -448 512 Left 2 ;Vo/Vd = (N2/N1) * D/(1-D) = (L2/L1)^(1/2) * D/(1-D)
TEXT 64 -320 Left 2 !K1 L1 L2 L3 1
TEXT -1232 -192 Left 2 !.param fs=200K
TEXT -1232 -168 Left 2 !;.param D=0.5
TEXT -1368 -24 Left 2 !;.step param D 0.05 0.5 0.05
TEXT -672 1400 Left 2 ;Vref/2
TEXT -936 1944 Left 2 !.tran 0 20m 0 startup
TEXT -352 1008 Left 2 !.inc SG3525A.sub
TEXT -1160 1728 Left 2 ;Con este 1/(RC) * 0.6 controlas
TEXT -1160 1752 Left 2 ;la frecuencia de conmutacion
TEXT 344 1936 Left 2 ;Con el C5 controlas el settling time
TEXT 352 1976 Left 2 ;Ts= 1/(C5*30) *10^-6
TEXT 352 2016 Left 2 ;El otro RC es un ajuste fino de ese tiempo
TEXT -432 712 Left 2 !.step dec param R 400 10k 10
LINE Normal -624 1888 -624 1536 2
LINE Normal -1200 1888 -624 1888 2
LINE Normal -1200 1536 -1200 1888 2
LINE Normal -624 1536 -1200 1536 2
LINE Normal -80 2000 -80 1904 2
LINE Normal -80 2064 -80 2000 2
LINE Normal 224 2064 -80 2064 2
LINE Normal 224 1904 224 2064 2
LINE Normal -80 1904 224 1904 2
