Version 4
SHEET 1 2728 2048
WIRE 1344 -256 896 -256
WIRE 48 -240 -400 -240
WIRE 368 -240 224 -240
WIRE 512 -240 432 -240
WIRE 624 -240 512 -240
WIRE 512 -176 512 -240
WIRE 624 -176 624 -240
WIRE 1344 -176 1344 -256
WIRE 224 -160 224 -240
WIRE 1168 -96 1120 -96
WIRE 1296 -96 1248 -96
WIRE 1840 -96 1792 -96
WIRE 48 -80 48 -240
WIRE 1840 -80 1840 -96
WIRE 1792 -48 1792 -96
WIRE 1792 -48 1632 -48
WIRE 2000 -48 1792 -48
WIRE 2112 -48 2000 -48
WIRE 224 -16 224 -80
WIRE 512 -16 512 -112
WIRE 512 -16 224 -16
WIRE 624 -16 624 -96
WIRE 624 -16 512 -16
WIRE -400 0 -400 -240
WIRE -128 0 -176 0
WIRE 0 0 -48 0
WIRE 2000 0 2000 -48
WIRE 2112 0 2112 -48
WIRE -784 16 -944 16
WIRE 512 16 512 -16
WIRE 896 16 896 -256
WIRE 368 64 224 64
WIRE 512 64 432 64
WIRE 624 64 512 64
WIRE 1344 64 1344 -80
WIRE 1504 64 1344 64
WIRE 1632 64 1632 -48
WIRE -944 80 -944 16
WIRE 1792 112 1712 112
WIRE 2000 112 2000 64
WIRE 2000 112 1856 112
WIRE 2112 112 2112 80
WIRE 2112 112 2000 112
WIRE 512 128 512 64
WIRE 624 128 624 64
WIRE 224 144 224 64
WIRE 1504 160 1344 160
WIRE 1712 160 1712 112
WIRE 1712 160 1632 160
WIRE 48 192 48 16
WIRE 1712 192 1632 192
WIRE 1856 192 1808 192
WIRE 1856 208 1856 192
WIRE -944 240 -944 160
WIRE 1712 240 1712 192
WIRE 1808 240 1808 192
WIRE 1808 240 1712 240
WIRE 2016 240 1808 240
WIRE 2128 240 2016 240
WIRE 224 288 224 224
WIRE 512 288 512 192
WIRE 512 288 224 288
WIRE 624 288 624 208
WIRE 624 288 512 288
WIRE 2016 288 2016 240
WIRE 2128 288 2128 240
WIRE 512 320 512 288
WIRE -400 368 -400 80
WIRE 48 368 48 272
WIRE 48 368 -400 368
WIRE 896 368 896 96
WIRE 1344 368 1344 160
WIRE 1344 368 896 368
WIRE 1632 416 1632 288
WIRE 1808 416 1632 416
WIRE 2016 416 2016 352
WIRE 2016 416 1872 416
WIRE 2128 416 2128 368
WIRE 2128 416 2016 416
WIRE -400 432 -400 368
WIRE 896 432 896 368
FLAG -400 432 0
FLAG 624 -240 Vout1
FLAG -944 240 0
FLAG -784 16 PWM
FLAG -176 0 PWM
FLAG 512 16 0
FLAG 624 64 Vout2
FLAG 512 320 0
FLAG 896 432 0
FLAG 2112 112 Vout3
FLAG 1120 -96 PWM
FLAG 1840 -80 0
FLAG 2128 416 Vout4
FLAG 1856 208 0
SYMBOL nmos 0 -80 R0
SYMATTR InstName M1
SYMATTR Value IRF530
SYMBOL diode 368 -224 R270
WINDOW 0 32 32 VTop 2
WINDOW 3 0 32 VBottom 2
SYMATTR InstName D1
SYMATTR Value MUR460
SYMBOL voltage -400 -16 R0
WINDOW 123 0 0 Left 0
WINDOW 39 0 0 Left 0
SYMATTR InstName V1
SYMATTR Value 12
SYMBOL res -32 -16 R90
WINDOW 0 0 56 VBottom 2
WINDOW 3 32 56 VTop 2
SYMATTR InstName R8
SYMATTR Value 100
SYMBOL cap 496 -176 R0
WINDOW 0 32 3 Left 2
SYMATTR InstName C1
SYMATTR Value 10µ
SYMBOL res 608 -192 R0
SYMATTR InstName R1
SYMATTR Value 2.5
SYMBOL voltage -944 64 M0
WINDOW 3 -270 235 Left 2
WINDOW 123 0 0 Left 0
WINDOW 39 0 0 Left 0
SYMATTR Value PULSE(0 12 0 1n 1n 3u 5u)
SYMATTR InstName V3
SYMBOL ind2 32 288 M180
WINDOW 0 36 80 Left 2
WINDOW 3 36 40 Left 2
SYMATTR InstName L1
SYMATTR Value 40µ
SYMATTR Type ind
SYMBOL ind2 240 -176 M0
SYMATTR InstName L2
SYMATTR Value 4.444µ
SYMATTR Type ind
SYMBOL diode 368 80 R270
WINDOW 0 32 32 VTop 2
WINDOW 3 0 32 VBottom 2
SYMATTR InstName D2
SYMATTR Value MUR460
SYMBOL cap 496 128 R0
WINDOW 0 32 3 Left 2
SYMATTR InstName C2
SYMATTR Value 10µ
SYMBOL res 608 112 R0
SYMATTR InstName R2
SYMATTR Value 2.5
SYMBOL ind2 240 128 M0
SYMATTR InstName L3
SYMATTR Value 4.444µ
SYMATTR Type ind
SYMBOL nmos 1296 -176 R0
SYMATTR InstName M2
SYMATTR Value IRF530
SYMBOL diode 1792 128 R270
WINDOW 0 32 32 VTop 2
WINDOW 3 0 32 VBottom 2
SYMATTR InstName D3
SYMATTR Value MUR460
SYMBOL voltage 896 0 R0
WINDOW 123 0 0 Left 0
WINDOW 39 0 0 Left 0
SYMATTR InstName V2
SYMATTR Value 12
SYMBOL res 1264 -112 R90
WINDOW 0 0 56 VBottom 2
WINDOW 3 32 56 VTop 2
SYMATTR InstName R3
SYMATTR Value 100
SYMBOL cap 1984 0 R0
WINDOW 0 32 3 Left 2
SYMATTR InstName C3
SYMATTR Value 10µ
SYMBOL res 2096 -16 R0
SYMATTR InstName R4
SYMATTR Value 2.5
SYMBOL 750313974 1504 64 R0
SYMATTR InstName U2
SYMBOL diode 1808 432 R270
WINDOW 0 32 32 VTop 2
WINDOW 3 0 32 VBottom 2
SYMATTR InstName D4
SYMATTR Value MUR460
SYMBOL cap 2000 288 R0
WINDOW 0 32 3 Left 2
SYMATTR InstName C4
SYMATTR Value 10µ
SYMBOL res 2112 272 R0
SYMATTR InstName R5
SYMATTR Value 2.5
TEXT -1392 160 Left 2 !.tran 0 25m 15m
TEXT -448 512 Left 2 ;Vo/Vd = (N2/N1) * D/(1-D) = (L2/L1)^(1/2) * D/(1-D)
TEXT 64 -320 Left 2 !K1 L1 L2 L3 1
TEXT 888 528 Left 2 !.inc 750313974_Wurth_Electronics_Midcom.lib
