Version 4
SHEET 1 2728 2080
WIRE 640 -608 640 -640
WIRE 640 -512 640 -528
WIRE 496 -240 -400 -240
WIRE -176 -96 -256 -96
WIRE 496 -96 496 -240
WIRE 496 -96 240 -96
WIRE -528 -32 -608 -32
WIRE -400 -32 -400 -160
WIRE -400 -32 -448 -32
WIRE -176 -32 -400 -32
WIRE 496 -32 240 -32
WIRE 656 -32 496 -32
WIRE 656 64 656 48
WIRE 496 96 496 -32
WIRE 496 96 240 96
WIRE -240 160 -448 160
WIRE -176 160 -240 160
WIRE 368 160 240 160
WIRE -240 176 -240 160
WIRE -176 224 -368 224
WIRE 640 224 240 224
WIRE 656 224 640 224
WIRE -448 240 -448 160
WIRE -368 240 -368 224
WIRE -240 288 -240 256
WIRE -176 288 -240 288
WIRE 560 288 240 288
WIRE -176 352 -224 352
WIRE 336 352 240 352
WIRE -448 400 -448 304
WIRE -368 400 -368 320
WIRE -224 448 -224 416
WIRE 336 448 336 352
WIRE 336 448 256 448
WIRE 560 464 560 288
WIRE 256 512 256 448
WIRE 352 512 256 512
WIRE 512 512 416 512
WIRE 256 576 256 512
WIRE 336 576 256 576
WIRE 512 576 512 512
WIRE 512 576 416 576
FLAG 368 160 0
FLAG -608 -32 0
FLAG 656 224 Vcontrol
FLAG 560 464 0
FLAG -224 448 0
FLAG -368 400 0
FLAG -448 400 0
FLAG 656 64 0
FLAG -256 -96 V_real
FLAG 640 -640 V_real
FLAG 512 512 V_real
FLAG 640 -512 0
FLAG 256 640 0
FLAG 640 304 0
SYMBOL res -416 -256 R0
SYMATTR InstName R3
SYMATTR Value 10k
SYMBOL res -432 -48 R90
WINDOW 0 0 56 VBottom 2
WINDOW 3 32 56 VTop 2
SYMATTR InstName R4
SYMATTR Value 1k
SYMBOL cap -240 352 R0
SYMATTR InstName C3
SYMATTR Value 1µ
SYMBOL res -384 224 R0
SYMATTR InstName R7
SYMATTR Value 10k
SYMBOL cap -464 240 R0
SYMATTR InstName C4
SYMATTR Value 1n
SYMBOL SG3525A -32 0 R0
SYMATTR InstName U1
SYMATTR Value SG3525A
SYMBOL cap 416 496 R90
WINDOW 0 0 32 VBottom 2
WINDOW 3 32 32 VTop 2
SYMATTR InstName C6
SYMATTR Value 68n
SYMBOL voltage 656 -48 R0
WINDOW 123 0 0 Left 0
WINDOW 39 0 0 Left 0
SYMATTR InstName V2
SYMATTR Value 12
SYMBOL voltage 640 -624 R0
WINDOW 123 0 0 Left 0
WINDOW 39 0 0 Left 0
SYMATTR InstName V1
SYMATTR Value 0.5
SYMBOL res -256 160 R0
SYMATTR InstName R1
SYMATTR Value 22
SYMBOL cap 240 576 R0
SYMATTR InstName C1
SYMATTR Value 10n
SYMBOL res 432 560 R90
WINDOW 0 0 56 VBottom 2
WINDOW 3 32 56 VTop 2
SYMATTR InstName R2
SYMATTR Value 470k
SYMBOL res 624 208 R0
SYMATTR InstName R5
SYMATTR Value 10k
TEXT -128 -1120 Left 2 ;Vo/Vd = (N2/N1) * D/(1-D) = (L2/L1)^(1/2) * D/(1-D)
TEXT -1232 -192 Left 2 !.param fs=200K
TEXT -1232 -168 Left 2 !;.param D=0.5
TEXT -1368 -24 Left 2 !;.step param D 0.05 0.5 0.05
TEXT -368 -56 Left 2 ;Vref/2
TEXT -632 488 Left 2 !.tran 0 20m 0 startup
TEXT -48 -448 Left 2 !.inc SG3525A.sub
TEXT -856 272 Left 2 ;Con este 1/(RC) * 0.6 controlas
TEXT -856 296 Left 2 ;la frecuencia de conmutacion
TEXT 648 480 Left 2 ;Con el C5 controlas el settling time
TEXT 656 520 Left 2 ;Ts= 1/(C5*30) *10^-6
TEXT 656 560 Left 2 ;El otro RC es un ajuste fino de ese tiempo
LINE Normal -320 432 -320 80 2
LINE Normal -896 432 -320 432 2
LINE Normal -896 80 -896 432 2
LINE Normal -320 80 -896 80 2
LINE Normal 224 544 224 448 2
LINE Normal 224 608 224 544 2
LINE Normal 528 608 224 608 2
LINE Normal 528 448 528 608 2
LINE Normal 224 448 528 448 2
