Version 4
SHEET 1 1288 680
WIRE 0 -208 -384 -208
WIRE 0 -176 0 -208
WIRE 0 -48 0 -96
WIRE -384 16 -384 -208
WIRE -48 64 -240 64
WIRE 0 64 0 32
WIRE 144 64 0 64
WIRE 272 64 208 64
WIRE 352 64 272 64
WIRE 496 64 352 64
WIRE 0 96 0 64
WIRE -48 112 -48 64
WIRE -240 144 -240 64
WIRE 272 144 272 64
WIRE 496 144 496 64
WIRE -384 304 -384 96
WIRE -240 304 -240 224
WIRE -240 304 -384 304
WIRE -48 304 -48 160
WIRE -48 304 -240 304
WIRE 0 304 0 176
WIRE 0 304 -48 304
WIRE 272 304 272 208
WIRE 272 304 0 304
WIRE 496 304 496 224
WIRE 496 304 272 304
WIRE 496 336 496 304
FLAG 496 336 0
FLAG 352 64 Vout
SYMBOL diode 144 80 R270
WINDOW 0 32 32 VTop 2
WINDOW 3 0 32 VBottom 2
SYMATTR InstName D1
SYMATTR Value MUR460
SYMBOL res -16 48 M180
WINDOW 0 36 76 Left 2
WINDOW 3 36 40 Left 2
SYMATTR InstName R4
SYMATTR Value 2
SYMBOL ind -16 -192 R0
SYMATTR InstName L1
SYMATTR Value 220µ
SYMBOL voltage -240 128 R0
WINDOW 3 941 -209 Left 2
WINDOW 123 0 0 Left 0
WINDOW 39 0 0 Left 0
SYMATTR Value PULSE(0 5 0 1n 1n {DT*T} {T})
SYMATTR InstName V1
SYMBOL voltage -384 0 R0
WINDOW 123 0 0 Left 0
WINDOW 39 0 0 Left 0
SYMATTR InstName V2
SYMATTR Value 12
SYMBOL cap 256 144 R0
SYMATTR InstName C1
SYMATTR Value 10µ
SYMBOL res 480 128 R0
SYMATTR InstName R2
SYMATTR Value 100
SYMBOL sw 0 192 M180
SYMATTR InstName S1
SYMATTR Value MYSW
TEXT 696 -128 Left 2 !.model MYSW SW(ron=0.1 Roff=1Meg Vt=.5 Vh=-.4)
TEXT 368 -32 Left 2 !.tran 0 3m 2m 1n startup
TEXT 160 -120 Left 2 ;Vin = 12V
TEXT 160 -96 Left 2 ;Vo=24V
TEXT 160 -72 Left 2 ;Delta Vo=5%
TEXT 160 -48 Left 2 ;Fsw 60KHz
TEXT 368 -88 Left 2 !.params DT = 0.56225
TEXT 368 -128 Left 2 !.params T=16.666u
TEXT 368 -64 Left 2 !;.params DT = 0.544
