Version 4
SHEET 1 880 680
WIRE 0 -208 -480 -208
WIRE 0 -176 0 -208
WIRE 0 -48 0 -96
WIRE 0 64 0 32
WIRE 288 64 0 64
WIRE 480 64 352 64
WIRE 704 64 480 64
WIRE 0 96 0 64
WIRE -48 112 -336 112
WIRE -480 160 -480 -208
WIRE -336 160 -336 112
WIRE 480 176 480 64
WIRE 704 176 704 64
WIRE -480 304 -480 240
WIRE -336 304 -336 240
WIRE -336 304 -480 304
WIRE -48 304 -48 160
WIRE -48 304 -336 304
WIRE 0 304 0 176
WIRE 0 304 -48 304
WIRE 480 304 480 240
WIRE 480 304 0 304
WIRE 704 304 704 256
WIRE 704 304 480 304
WIRE 704 368 704 304
FLAG 704 368 0
SYMBOL diode 288 80 R270
WINDOW 0 32 32 VTop 2
WINDOW 3 0 32 VBottom 2
SYMATTR InstName D1
SYMATTR Value MUR460
SYMBOL res 16 48 R180
WINDOW 0 36 76 Left 2
WINDOW 3 36 40 Left 2
SYMATTR InstName R4
SYMATTR Value 2
SYMBOL ind 16 -192 M0
SYMATTR InstName L1
SYMATTR Value 220µ
SYMBOL voltage -336 144 R0
WINDOW 3 -146 251 Left 2
WINDOW 123 0 0 Left 0
WINDOW 39 0 0 Left 0
SYMATTR InstName V1
SYMATTR Value PULSE(0 5 0 1n 1n .00001 .00002)
SYMBOL voltage -480 144 R0
WINDOW 123 0 0 Left 0
WINDOW 39 0 0 Left 0
SYMATTR InstName V2
SYMATTR Value 12
SYMBOL cap 464 176 R0
SYMATTR InstName C1
SYMBOL res 688 160 R0
SYMATTR InstName R2
SYMATTR Value 100
SYMBOL sw 0 192 M180
SYMATTR InstName S1
SYMATTR Value MYSW
TEXT 80 400 Left 2 !.model MYSW SW(ron=0.1 Roff=1Meg Vt=.5 Vh=-.4)
TEXT -704 392 Left 2 !.tran 0 .005 .001
