Version 4
SHEET 1 1024 680
WIRE 0 -208 -384 -208
WIRE 0 -176 0 -208
WIRE 0 -48 0 -96
WIRE 0 64 0 32
WIRE 176 64 0 64
WIRE 368 64 240 64
WIRE 448 64 368 64
WIRE 592 64 448 64
WIRE 0 96 0 64
WIRE -48 112 -240 112
WIRE -384 160 -384 -208
WIRE -240 160 -240 112
WIRE 368 176 368 64
WIRE 592 176 592 64
WIRE -384 304 -384 240
WIRE -240 304 -240 240
WIRE -240 304 -384 304
WIRE -48 304 -48 160
WIRE -48 304 -240 304
WIRE 0 304 0 176
WIRE 0 304 -48 304
WIRE 368 304 368 240
WIRE 368 304 0 304
WIRE 592 304 592 256
WIRE 592 304 368 304
WIRE 592 352 592 304
FLAG 592 352 0
FLAG 448 64 Vout
SYMBOL diode 176 80 R270
WINDOW 0 32 32 VTop 2
WINDOW 3 0 32 VBottom 2
SYMATTR InstName D1
SYMATTR Value MUR460
SYMBOL res -16 48 M180
WINDOW 0 36 76 Left 2
WINDOW 3 36 40 Left 2
SYMATTR InstName R4
SYMATTR Value 2
SYMBOL ind -16 -192 R0
SYMATTR InstName L1
SYMATTR Value 220µ
SYMBOL voltage -240 144 R0
WINDOW 3 -146 251 Left 2
WINDOW 123 0 0 Left 0
WINDOW 39 0 0 Left 0
SYMATTR Value PULSE(0 5 0 1n 1n {DT*T} {T})
SYMATTR InstName V1
SYMBOL voltage -384 144 R0
WINDOW 123 0 0 Left 0
WINDOW 39 0 0 Left 0
SYMATTR InstName V2
SYMATTR Value 12
SYMBOL cap 352 176 R0
SYMATTR InstName C1
SYMATTR Value 10µ
SYMBOL res 576 160 R0
SYMATTR InstName R2
SYMATTR Value 100
SYMBOL sw 0 192 M180
SYMATTR InstName S1
SYMATTR Value MYSW
TEXT 24 416 Left 2 !.model MYSW SW(ron=0.1 Roff=1Meg Vt=.5 Vh=-.4)
TEXT -720 304 Left 2 !.tran 0 3m 2m 1n
TEXT -664 -56 Left 2 ;Vin = 12V
TEXT -664 -16 Left 2 ;Vo=24V
TEXT -664 16 Left 2 ;Delta Vo=5%
TEXT -664 48 Left 2 ;Fsw 60KHz
TEXT 424 -96 Left 2 !.params DT = 0.56225
TEXT 384 -136 Left 2 !.params T=16.666u
